Version 4
SHEET 1 1804 680
WIRE 832 -208 736 -208
WIRE 960 -208 832 -208
WIRE 960 -128 960 -208
WIRE 288 -80 288 -112
WIRE 736 -32 736 -208
WIRE 960 16 960 -48
WIRE 960 16 800 16
WIRE 288 32 288 0
WIRE 960 112 960 16
WIRE 1296 144 1104 144
WIRE 160 160 128 160
WIRE 288 160 240 160
WIRE 736 160 736 64
WIRE 896 160 736 160
WIRE 288 240 288 160
WIRE 1104 240 1104 144
WIRE 1136 240 1104 240
WIRE 1232 256 1200 256
WIRE 1296 256 1296 144
WIRE 1296 256 1232 256
WIRE 1328 256 1296 256
WIRE 1440 256 1408 256
WIRE 736 272 736 160
WIRE 960 272 960 208
WIRE 1136 272 960 272
WIRE 128 304 128 160
WIRE 128 304 64 304
WIRE 160 304 128 304
WIRE 464 304 416 304
WIRE 544 304 464 304
WIRE 960 304 960 272
WIRE 1168 304 1168 288
WIRE 1440 304 1440 256
WIRE 64 320 64 304
WIRE 464 320 464 304
WIRE 912 320 864 320
WIRE 544 368 544 304
WIRE 1440 400 1440 384
WIRE 64 416 64 384
WIRE 128 416 128 304
WIRE 160 416 128 416
WIRE 464 416 464 400
WIRE 464 416 416 416
WIRE 464 432 464 416
WIRE 864 448 864 320
WIRE 960 448 960 400
WIRE 960 448 864 448
WIRE 288 528 288 480
WIRE 464 528 464 496
WIRE 464 528 288 528
WIRE 544 528 544 432
WIRE 544 528 464 528
WIRE 736 528 736 352
WIRE 848 528 736 528
WIRE 960 528 960 448
WIRE 960 528 848 528
WIRE 288 576 288 528
WIRE 848 576 848 528
FLAG 288 576 0
FLAG 288 32 0
FLAG 288 -112 +5V
FLAG 64 416 0
FLAG 64 304 +5V
FLAG 544 304 +32V
FLAG 848 576 0
FLAG 832 -208 +32V
FLAG 1168 224 +32V
FLAG 1168 304 0
FLAG 1232 256 vs
FLAG 1440 400 0
SYMBOL PowerProducts\\LT3497 288 352 R0
SYMATTR InstName U1
SYMBOL voltage 288 -96 R0
WINDOW 123 0 0 Left 2
WINDOW 39 0 0 Left 2
SYMATTR InstName Valim
SYMATTR Value 5
SYMBOL ind 256 144 R90
WINDOW 0 5 56 VBottom 2
WINDOW 3 32 56 VTop 2
SYMATTR InstName L1
SYMATTR Value 15µ
SYMBOL cap 448 432 R0
SYMATTR InstName C1
SYMATTR Value 1µ
SYMBOL res 448 304 R0
SYMATTR InstName R1
SYMATTR Value 10
SYMBOL cap 48 320 R0
SYMATTR InstName C2
SYMATTR Value 1µ
SYMBOL cap 528 368 R0
SYMATTR InstName C3
SYMATTR Value 0.1µ
SYMBOL pnp 896 208 M180
SYMATTR InstName Q1
SYMATTR Value 2N2907
SYMBOL pnp 800 64 R180
SYMATTR InstName Q2
SYMATTR Value 2N2907
SYMBOL res 944 -144 R0
SYMATTR InstName R2
SYMATTR Value 7500
SYMBOL res 720 256 R0
SYMATTR InstName R3
SYMATTR Value 10k
SYMBOL pmos 912 400 M180
SYMATTR InstName M1
SYMATTR SpiceModel TEST1
SYMBOL Opamps\\LT1001A 1168 192 R0
SYMATTR InstName U2
SYMBOL res 1424 240 R90
WINDOW 0 0 56 VBottom 2
WINDOW 3 32 56 VTop 2
SYMATTR InstName R4
SYMATTR Value 6500
SYMBOL res 1456 400 R180
WINDOW 0 36 76 Left 2
WINDOW 3 36 40 Left 2
SYMATTR InstName R5
SYMATTR Value 1k
TEXT 40 528 Left 2 !.tran 0 1m 0
TEXT 984 472 Left 2 !.model TEST1 PMOS(Vto = {X})
TEXT 984 496 Left 2 !.step param X -4 -30 -5
